--- configure.orig	Sat Jul  9 09:09:19 2005
+++ configure	Sat Jul 23 16:23:25 2005
@@ -351,6 +351,12 @@
 oldincludedir='/usr/include'
 infodir='${prefix}/info'
 mandir='${prefix}/man'
+moduledir='${prefix}/modules'
+automoduledir='${prefix}/modules/autoload'
+uhelpdir='${prefix}/help/users'
+ohelpdir='${prefix}/help/opers'
+messagedir='${prefix}/messages'
+logsdir='/var/log/ircd'
 
 ac_prev=
 for ac_option
@@ -479,6 +485,24 @@
   -mandir=* | --mandir=* | --mandi=* | --mand=* | --man=* | --ma=* | --m=*)
     mandir=$ac_optarg ;;
 
+  -moduledir=* | --moduledir=*)
+  moduledir=$ac_optarg ;;
+
+  -automoduledir=* | --automoduledir=*)
+  automoduledir=$ac_optarg ;;
+
+  -uhelpdir=* | --uhelpdir=*)
+  uhelpdir=$ac_optarg ;;
+
+  -ohelpdir=* | --ohelpdir=*)
+  ohelpdir=$ac_optarg ;;
+
+  -logsdir=* | --logsdir=*)
+  logsdir=$ac_optarg ;;
+
+  -messagedir=* | --messagedir=*)
+  messagedir=$ac_optarg ;;
+
   -nfp | --nfp | --nf)
     # Obsolete; use --without-fp.
     with_fp=no ;;
@@ -670,7 +694,8 @@
 
 # Be sure to have absolute paths.
 for ac_var in bindir sbindir libexecdir datadir sysconfdir sharedstatedir \
-	      localstatedir libdir includedir oldincludedir infodir mandir
+	      localstatedir libdir includedir oldincludedir infodir mandir \
+	      moduledir automoduledir uhelpdir ohelpdir messagedir logsdir
 do
   eval ac_val=$`echo $ac_var`
   case $ac_val in
@@ -10693,6 +10718,13 @@
 
 cat >>confdefs.h <<_ACEOF
 #define IRCD_PREFIX "$ac_default_prefix"
+#define MODPATH "$moduledir/"
+#define AMODPATH "$automoduledir/"
+#define UHPATH "$uhelpdir/"
+#define HPATH "$ohelpdir/"
+#define MSGPATH "$messagedir/"
+#define LOGPATH "$logsdir" 
+#define ETCPATH "$sysconfdir"
 _ACEOF
 
 
@@ -10703,6 +10735,13 @@
 
 cat >>confdefs.h <<_ACEOF
 #define IRCD_PREFIX "$prefix"
+#define MODPATH "$moduledir/"
+#define AMODPATH "$automoduledir/"
+#define UHPATH "$uhelpdir/"
+#define HPATH "$ohelpdir/"
+#define MSGPATH "$messagedir/"
+#define LOGPATH "$logsdir"
+#define ETCPATH "$sysconfdir"
 _ACEOF
 
 
@@ -11323,6 +11362,12 @@
 s,@oldincludedir@,$oldincludedir,;t t
 s,@infodir@,$infodir,;t t
 s,@mandir@,$mandir,;t t
+s,@moduledir@,$moduledir,;t t
+s,@automoduledir@,$automoduledir,;t t
+s,@uhelpdir@,$uhelpdir,;t t
+s,@ohelpdir@,$ohelpdir,;t t
+s,@logsdir@,$logsdir,;t t
+s,@messagedir@,$messagedir,;t t
 s,@build_alias@,$build_alias,;t t
 s,@host_alias@,$host_alias,;t t
 s,@target_alias@,$target_alias,;t t
